results/case118-flows_q.csv
ID,F_BUS,T_BUS,QF,QF1,QT1,QT,QSF,QST,TAP,TYPE
E1,2,1,11.006364608539974,12.204741639314168,11.882927920593634,13.041199670593635,1.1983770307741952,1.1582717500000002,1.0,E
E2,3,1,16.884898089771923,17.39150547512049,16.56949188890127,17.06289741390127,0.5066073853485673,0.49340552500000007,1.0,E
E3,5,4,27.492803521506147,27.598220708828116,26.687366990350156,26.791947410350158,0.10541718732196782,0.10458041999999997,1.0,E
E4,5,3,17.28351754424367,18.709159506121708,13.15915183024756,14.48887916332513,1.425641961878041,1.3297273330775707,1.0,E
E5,5,6,4.10644522148858,4.822278122065371,0.5999092541722972,1.2987205541722973,0.715832900576791,0.6988113,1.0,E
E6,7,6,4.505181803353474,4.7743434624538015,4.501985786685274,4.771513286685273,0.2691616591003281,0.2695275,1.0,E
E7,9,8,24.428906210133693,87.62302023665575,29.87755286482694,89.73362536482692,63.19411402652205,59.85607249999998,1.0,E
E8,8,5,124.72682875757451,124.72682875757451,34.745758149350685,92.00767639438378,0.0,57.261918245033094,0.985,E
E9,9,10,-24.428906210134492,42.46331431707903,-16.76159840886465,51.042151591135344,66.89222052721352,67.80375,1.0,E
E10,11,4,1.349060935447799,2.1971900521981818,-0.6528083242988447,0.21769917170115505,0.8481291167503828,0.8705074959999998,1.0,E
E11,5,11,2.965981603531598,3.8384343252724555,-0.22268678441906342,0.6205903350959052,0.8724527217408575,0.8432771195149686,1.0,E
E12,12,11,35.13063540358064,35.37664050358064,34.89317293777114,35.13674319898893,0.24600510000000017,0.24357026121778733,1.0,E
E13,12,2,19.424046839898597,20.1944054398986,19.26469189500588,20.006364608540146,0.7703586000000006,0.7416727135342659,1.0,E
E14,12,3,8.857319642862054,10.846922642862054,10.495070696765554,12.39601892644687,1.9896030000000013,1.9009482296813156,1.0,E
E15,12,7,5.756327958689638,6.1846316586896375,6.077459457801633,6.505181803353791,0.42830370000000023,0.4277223455521577,1.0,E
E16,11,13,11.40827259863619,12.318507279999872,11.276910273809863,12.156387357866615,0.910234681363683,0.8794770840567524,1.0,E
E17,12,14,2.622998261980789,3.5129290619807896,3.2620733481021613,4.140519130341962,0.8899308000000005,0.8784457822398012,1.0,E
E18,13,15,-3.8436126421336154,-0.905146563845916,-0.9088201813649821,2.0399604186350158,2.9384660782876995,2.948780599999998,1.0,E
E19,14,15,3.1405191303424997,5.568821898428293,5.470111639114524,7.831770639114522,2.428302768085794,2.361658999999998,1.0,E
E20,12,16,4.303156629177712,5.351863629177712,5.27952654769188,6.315344352934953,1.0487070000000007,1.035817805243073,1.0,E
E21,17,15,25.219606962666973,27.417853596563972,22.179717986663427,24.268515986663424,2.1982466338970013,2.088797999999999,1.0,E
E22,16,17,-3.6846556470650995,-1.4290897720965385,-2.0033385253306246,0.3038302390747871,2.255565874968561,2.3071687644054117,1.0,E
E23,17,18,24.763029531085294,25.40567010108491,21.790426136144347,22.404853257144346,0.6426405699996189,0.6144271210000002,1.0,E
E24,18,19,16.83117712136276,17.37175938036276,17.0188348546618,17.5472633786618,0.540582259,0.5284285239999997,1.0,E
E25,19,20,5.166548270852274,6.545459830852273,6.348591768753578,7.713019455339626,1.3789115599999995,1.3644276865860478,1.0,E
E26,15,19,15.719205039165725,16.194359539165724,16.028916304127847,16.496265524127846,0.4751544999999996,0.4673492199999999,1.0,E
E27,20,21,4.713019455339557,5.702000597294545,4.9099564909718705,5.90057242318173,0.9889811419549878,0.9906159322098599,1.0,E
E28,22,21,1.7578578016759951,2.9128253067277865,0.9712260984683052,2.099427576818423,1.1549675050517914,1.128201478350118,1.0,E
E29,23,22,7.685716204638984,9.703572836965375,4.861081899070491,6.757857801675872,2.0178566323263905,1.896775902605381,1.0,E
E30,23,24,10.418756990631978,12.906114918598668,12.79027999360565,15.24059935360565,2.487357927966689,2.4503193600000004,1.0,E
E31,25,23,38.62641593988913,43.38921593988913,21.843263933500406,26.15868009768358,4.7628,4.315416164183172,1.0,E
E32,26,25,21.584616501392308,21.584616501392308,-101.61558926899045,18.639646333104015,0.0,120.25523560209446,0.96,E
E33,25,27,30.05648721858002,39.78053721858002,6.985673633931871,15.250225313931868,9.72405,8.264551679999997,1.0,E
E34,27,28,-0.5920582329168228,0.41992768708317707,-0.5664380655647622,0.43214420890818617,1.0119859199999999,0.9985822744729483,1.0,E
E35,29,28,4.643944799774887,5.748009788730507,5.467566062737499,6.567855791091952,1.1040649889556204,1.1002897283544524,1.0,E
E36,30,17,92.9695148436987,92.9695148436987,-36.23487883869639,70.10115922402832,0.0,106.33603806272471,0.96,E
E37,8,30,28.14524052550761,54.6220230255076,50.471869335469194,75.42349447214981,26.476782499999995,24.951625136680615,1.0,E
E38,26,30,-11.459892951199013,35.31232204880098,-7.505937762730184,36.572030377553865,46.77221499999999,44.07796814028405,1.0,E
E39,17,31,11.521753825762811,13.497205192710792,12.865491392977495,14.730993947977494,1.975451366947981,1.8655025549999993,1.0,E
E40,31,29,7.920452179661322,8.308514114661323,8.258913732198401,8.643944799775362,0.3880619349999999,0.38503106757696004,1.0,E
E41,23,32,5.054206902412234,10.912983708647026,0.7964961362743299,6.235515321274329,5.858776806234792,5.439019184999999,1.0,E
E42,31,32,12.396556190926109,13.570092885926108,12.43707954430824,13.60092763930824,1.1735366949999997,1.1638480949999999,1.0,E
E43,27,32,1.7642481524494995,2.6666022644494993,2.534429534174592,3.427485881174592,0.9023541119999997,0.8930563469999998,1.0,E
E44,33,15,1.4921961442252094,2.9977089746509886,2.91588626565364,4.418503565653639,1.505512830425779,1.502617299999999,1.0,E
E45,34,19,4.5965645411445255,7.656253501144526,7.472787860508751,10.39719090050875,3.059688960000001,2.924403039999999,1.0,E
E46,35,36,4.0361575097999545,4.1649699712622885,4.163054672921323,4.291748272921323,0.12881246146233416,0.12869359999999996,1.0,E
E47,37,35,12.427465233341845,13.074214367460018,12.402669359774627,13.036157509802077,0.6467491341181718,0.6334881500274493,1.0,E
E48,37,33,7.45898885045875,9.25496899527856,8.767031160079986,10.492196144224742,1.7959801448198094,1.7251649841447558,1.0,E
E49,34,36,4.695485649885126,4.970470353885126,4.710419544871263,4.983173144871262,0.2749847040000001,0.27275359999999993,1.0,E
E50,37,34,44.2867802998993,44.769633978178724,43.72063675360856,44.197018705608556,0.48285367827942416,0.4763819520000001,1.0,E
E51,38,37,113.60465054953764,113.60465054953764,-93.92400928687844,88.0129446899776,0.0,181.93695397685605,0.935,E
E52,37,39,2.9795092883271077,4.304412673849917,1.0279626090682543,2.298075688076103,1.32490338552281,1.2701130790078488,1.0,E
E53,40,37,2.959926003168866,4.935816003168867,1.6140860401767871,3.6750468621011585,1.9758900000000006,2.0609608219243714,1.0,E
E54,30,38,19.02601000615439,39.51158550747583,36.480950329056014,55.97883284547988,20.485575501321442,19.497882516423868,1.0,E
E55,40,39,7.748473818444351,8.47861221844435,7.971844497619561,8.701924311923332,0.7301384000000002,0.7300798143037709,1.0,E
E56,40,41,1.1925986350346616,1.7674885350346616,1.6423612787191302,2.21350270816416,0.5748899000000001,0.5711414294450295,1.0,E
E57,42,40,2.301693065475491,4.562317315475491,4.254631108481469,6.44692810848147,2.2606242500000002,2.192297000000001,1.0,E
E58,42,41,5.2382209511113835,6.9070079511113835,6.178701451172158,7.786497291835744,1.668787,1.6077958406635857,1.0,E
E59,43,44,-1.3301854984349812,1.5665756470386512,0.852606776310008,3.7928995064387085,2.8967611454736324,2.9402927301287005,1.0,E
E60,34,43,1.633440783599583,3.6793657115995835,3.652393176454166,5.66981450156484,2.0459249280000003,2.017421325110674,1.0,E
E61,44,45,5.484042321628814,6.569450316930114,5.530939224938098,6.620643851058613,1.0854079953013,1.0897046261205146,1.0,E
E62,46,45,2.1197268467376422,3.796368346737642,1.9517735033611823,3.5668714313612306,1.6766414999999997,1.6150979280000484,1.0,E
E63,46,47,-1.2181637441998059,0.37767575580019375,-0.8395357585239673,0.7948073754542109,1.5958394999999996,1.6343431339781782,1.0,E
E64,48,46,1.4186674533349688,3.877061723576919,3.447111441489471,5.83077044148947,2.4583942702419503,2.3836589999999993,1.0,E
E65,49,47,9.28026201252423,10.122863262524229,10.007416178611647,10.837000478263862,0.8426012499999999,0.8295842996522143,1.0,E
E68,49,45,2.3127795490678476,4.645167049067847,-0.07697111384189048,2.0829791272184153,2.3323875000000003,2.1599502410603058,1.0,E
E69,48,49,3.206719857524175,3.861944432092898,3.2643171000911106,3.9251602250911106,0.6552245745687233,0.6608431249999999,1.0,E
E70,49,50,13.427130277944105,14.411565902944105,12.201940183142955,13.140970374081542,0.9844356249999998,0.9390301909385868,1.0,E
E71,49,51,20.442802358523142,22.23937110852314,15.805771054305287,17.40436547667331,1.79656875,1.598594422368022,1.0,E
E72,51,52,6.2456823400877575,6.898208016586517,6.355280617061559,6.994300081054726,0.6525256764987598,0.6390194639931669,1.0,E
E73,52,53,1.9943000810548797,3.851850929825847,3.633252364519064,5.448971284873368,1.8575508487709675,1.8157189203543038,1.0,E
E74,54,53,2.9932499541711977,4.406888704171198,4.163959061825076,5.551028715126787,1.41363875,1.3870696533017106,1.0,E
E75,49,54,13.069960722069956,16.946766972069955,12.233501158485748,15.598873408485748,3.87680625,3.3653722500000005,1.0,E
E76,49,54,11.198036547496597,15.032817797496596,10.46098842823589,13.78987967823589,3.8347812499999994,3.32889125,1.0,E
E77,54,55,1.4568186188405405,2.3779638688405407,2.3347943976228445,3.250161437622845,0.92114525,0.9153670400000002,1.0,E
E78,54,56,4.346376162381111,4.680177312381111,4.641937372517298,4.975039828517298,0.33380115,0.3331024559999998,1.0,E
E79,56,55,5.566033233066543,5.7362249250665425,5.654444876344049,5.8239237243440485,0.1701916919999999,0.16947884800000004,1.0,E
E80,57,56,7.491332334403254,8.631189174478328,8.002314774852266,9.103555134852265,1.1398568400750733,1.1012403599999994,1.0,E
E81,50,57,9.140970374081567,10.804567083748648,8.927561793473775,10.491332334403214,1.66359670966708,1.5637705409294396,1.0,E
E82,58,56,1.5329924116890128,2.64589617171014,2.591597872024648,3.6928382320246476,1.1129037600211271,1.1012403599999994,1.0,E
E83,51,58,3.1586831365848527,3.9944395188053274,3.7107312865165207,4.532992411689155,0.8357563822204745,0.8222611251726344,1.0,E
E84,59,54,4.256953351593371,7.157926101593372,4.779672413774728,7.506627163774728,2.9009727500000007,2.72695475,1.0,E
E85,59,56,0.9874328639738847,3.7477229889738854,1.5843285184976406,4.173608538497639,2.7602901250000005,2.5892800199999986,1.0,E
E86,59,56,1.1295402073520768,3.7297432073520773,1.4676295072657095,3.9067403872657085,2.6002030000000005,2.439110879999999,1.0,E
E87,59,55,5.878414878044131,8.617360053044132,5.703247030144583,8.261743222144585,2.738945175000001,2.558496192000001,1.0,E
E88,59,60,3.574265454596151,5.398288454596152,2.5505514559019042,4.404907012471809,1.8240230000000006,1.8543555565699046,1.0,E
E89,59,61,5.032183749147251,6.914420249147251,2.70514429164362,4.625792791643621,1.8822365000000003,1.9206485000000002,1.0,E
E90,60,61,8.519138629407758,9.237208227909296,7.506613092446456,8.227351292446455,0.7180695985015375,0.7207382,1.0,E
E91,62,60,5.737833612836971,6.46890054883697,6.390243862403279,7.114231616936423,0.731066936,0.7239877545331437,1.0,E
E92,62,61,13.199271247902477,13.687313207902477,13.37258042182481,13.857692671824811,0.48804196,0.48511225,1.0,E
E93,63,59,67.48277906575956,67.48277906575956,-47.70583956329517,57.02483832962386,0.0,104.73067789291903,0.96,E
E94,64,63,52.50584224698957,62.95745184218557,57.34750393502583,67.48277906576051,10.451609595195997,10.135275130734684,1.0,E
E95,64,61,13.986293973659302,13.986293973659302,-42.57250749308631,13.683174755568658,0.0,56.25568224865497,0.985,E
E96,38,65,-57.62581770405328,-9.29694303064246,-44.454132345040364,8.370175154959625,48.32887467341082,52.82430749999999,1.0,E
E97,65,64,40.06370234113093,59.25417734113093,48.105045266136685,66.49213622064816,19.190474999999996,18.387090954511475,1.0,E
E100,66,62,14.675718915294375,17.861943915294376,14.386181230945995,17.264632790945996,3.1862250000000003,2.87845156,1.0,E
E101,67,62,12.147085751249787,13.758699632737008,12.870293028637006,14.414099228637006,1.6116138814872216,1.5438062000000001,1.0,E
E102,65,66,72.24968377087283,72.24968377087283,-136.59238730829333,70.55459925045749,0.0,207.1469865587508,0.935,E
E103,66,67,19.272528006685054,20.750980506685053,17.752779806040554,19.147085751249822,1.4784525,1.3943059452092672,1.0,E
E104,65,68,-22.43305200402025,9.78674549597974,9.739711465710464,41.84736131035969,32.21979749999999,32.107649844649224,1.0,E
E105,47,69,11.631807853718708,15.299770355672266,6.266986940809506,10.065550790809505,3.667962501953556,3.7985638499999994,1.0,E
E106,49,69,10.647518504396361,14.997106004396361,7.623872530442407,12.058744030442407,4.349587499999999,4.4348715,1.0,E
E107,68,69,112.81964864630818,112.81964864630818,-97.62773884269177,103.64303728102504,0.0,201.27077612371681,0.935,E
E108,69,70,16.074709059715946,22.609181559715946,8.0783576543623,13.984719254362298,6.5344725,5.9063615999999985,1.0,E
E109,24,70,-2.9740822012436428,2.0436601347563577,1.8646598281456912,6.80179717214569,5.017742336,4.937137343999999,1.0,E
E110,71,70,11.678110984692138,12.105636455278747,11.951589771664427,12.376654155664427,0.4275254705866097,0.42506438399999985,1.0,E
E111,24,72,3.3070603201956055,5.708176480195606,5.638991660623924,7.9823676606239236,2.4011161600000004,2.3433759999999997,1.0,E
E112,71,72,-0.9397096367910578,1.224211993376247,1.0136786265306346,3.1476874265306347,2.1639216301673048,2.1340088,1.0,E
E113,73,71,9.65137065096637,10.229816359966371,10.16479655934649,10.73840134790119,0.5784457089999998,0.5736047885546997,1.0,E
E114,70,74,12.892636218650114,14.523179322650114,13.876053656922505,15.421568232922505,1.6305431039999998,1.5455145760000006,1.0,E
E115,70,75,9.939826530699882,11.682687330699881,11.483908145541108,13.168223902030219,1.7428607999999994,1.6843157564891107,1.0,E
E116,69,75,20.485398517243365,27.126993517243363,12.506187892752138,18.307719942881295,6.641594999999999,5.8015320501291585,1.0,E
E117,75,74,6.442338120436614,6.92611103493932,5.7159886421893615,6.190472630189362,0.4837729145027057,0.47448398800000025,1.0,E
E118,77,76,24.39172971849371,26.253875958493712,19.40378948825975,21.04000764825975,1.86214624,1.6362181599999994,1.0,E
E119,69,77,6.783167233044943,12.342824983044942,8.550366578432495,13.802833418432495,5.5596577499999995,5.252466839999999,1.0,E
E120,77,75,7.376289732487773,9.895247336487774,7.22501962989808,9.554054028732189,2.5189576039999997,2.329034398834109,1.0,E
E121,77,78,6.611279952872986,7.250886704872986,6.991959599506232,7.628294587026165,0.639606752,0.6363349875199333,1.0,E
E122,79,78,17.95425374543768,18.284257855410907,18.045483045954136,18.37170541297385,0.33000410997322854,0.3262223670197126,1.0,E
E123,80,77,37.53124304376717,40.08381904376717,35.02657948459207,37.41498444459207,2.552576,2.38840496,1.0,E
E124,80,77,20.591187613917977,21.824211613917978,19.391939729522853,20.545660769522854,1.2330240000000001,1.15372104,1.0,E
E125,80,79,31.083333337236972,32.094629337236974,28.631302997630588,29.583629673016294,1.0112960000000002,0.9523266753857059,1.0,E
E126,68,81,-4.614243483941127,36.04873625661776,35.396816393517675,75.53920489432097,40.66297974055889,40.1423885008033,1.0,E
E127,81,80,75.53920489432356,75.53920489432356,-130.174537524366,73.0455809898697,0.0,203.2201185142357,0.935,E
E128,77,82,17.55454356444518,21.69073469644518,21.286466364410256,25.28037149383981,4.1361911319999995,3.9939051294295544,1.0,E
E129,82,83,24.393508066552634,26.24827487243893,25.153553708163408,26.992712323278646,1.8547668058862967,1.8391586151152373,1.0,E
E130,83,84,14.686551271232348,15.936558970652083,14.75370391242609,15.991871268589172,1.2500076994197344,1.238167356163082,1.0,E
E131,83,85,11.996143218090848,13.682200114982583,10.60222264488202,12.29041414488202,1.6860568968917349,1.6881914999999994,1.0,E
E132,84,85,8.99187126858913,9.58407999630434,8.640501872535724,9.239130697535725,0.5922087277152105,0.5986288249999999,1.0,E
E133,86,85,5.090966470234998,6.4344773782573235,6.014762447157161,7.353672947157161,1.3435109080223255,1.3389104999999997,1.0,E
E134,87,86,11.021607354416986,13.313857979416985,12.924798520706364,15.090966470235113,2.292250624999999,2.1661679495287496,1.0,E
E135,85,88,7.599657820937661,8.93856832093766,6.184897180895037,7.530485532682155,1.3389104999999997,1.345588351787118,1.0,E
E137,89,88,7.6986325360833945,8.675326711083395,1.526627557043918,2.469514467317935,0.9766941749999998,0.9428869102740168,1.0,E
E138,90,89,5.813201910668445,8.374595910668447,2.0578564269513167,4.724322426951316,2.5613940000000013,2.6664659999999993,1.0,E
E139,90,89,7.071282605579587,12.21347510557959,0.08892100306158479,5.442053503061583,5.142192500000002,5.353132499999998,1.0,E
E140,90,91,4.423922972608484,5.462063722608484,5.434638190373353,6.462266190373353,1.0381407500000004,1.0276279999999998,1.0,E
E141,92,89,16.96028880882511,19.645762808825108,-0.663452298333596,2.1040162016664032,2.6854739999999997,2.767468499999999,1.0,E
E142,92,89,7.291613972351935,9.320420972351934,2.976004306422007,5.066756056422006,2.028807,2.0907517499999995,1.0,E
E143,92,91,3.586707314835316,5.188190714835316,5.056462774950511,6.625756374950511,1.6014833999999998,1.5692935999999995,1.0,E
E144,93,92,12.501456463514327,13.559932056733617,10.58997299090083,11.658281990900829,1.0584755932192906,1.068309,1.0,E
E145,94,92,15.905426750376215,17.894348431368154,13.22477751615828,15.214380516158279,1.9889216809919383,1.9896029999999998,1.0,E
E146,94,93,19.439590213289755,20.35860919692051,18.590584806230073,19.501456463514195,0.9190189836307576,0.9108716572841233,1.0,E
E147,94,95,9.014243125263537,9.558012353317983,8.777964622491647,9.311347695110868,0.5437692280544463,0.533383072619222,1.0,E
E148,80,96,21.066502632909145,23.738054632909147,22.184551560864936,24.61657497084669,2.671552,2.4320234099817513,1.0,E
E149,96,82,1.294407338063298,3.9725869636302464,3.910659317845879,6.5687023694848286,2.6781796255669486,2.6580430516389497,1.0,E
E150,96,94,7.976964992203977,9.109283583895886,8.694935025382964,9.821664056486771,1.1323185916919083,1.1267290311038074,1.0,E
E151,80,97,25.75325494289165,27.12688694289165,25.888518195383128,27.187038612415503,1.3736320000000002,1.2985204170323765,1.0,E
E152,80,98,8.318119841257143,9.864807841257143,8.930816284907046,10.428841177243482,1.5466880000000003,1.498024892336437,1.0,E
E153,80,99,8.16840436796258,11.121172367962581,10.156619965395514,12.941492965395515,2.9527680000000003,2.784873,1.0,E
E154,100,92,15.372894646659644,17.813816686659642,14.219243564768188,16.53227956476819,2.4409220399999993,2.313036,1.0,E
E155,100,94,45.80608650341754,48.929639283417536,47.57870762032774,50.53759603244383,3.12355278,2.9588884121160857,1.0,E
E156,96,95,20.506301703281167,21.23197022682633,20.980358026474075,21.68865230488915,0.7256685235451621,0.708294278415075,1.0,E
E157,97,96,18.187038612415556,19.41398703795796,18.97954922789362,20.16109906270257,1.2269484255424032,1.181549834808948,1.0,E
E158,98,100,2.428841177243642,4.922057431621767,4.83344696915333,7.29505478915333,2.4932162543781256,2.4616078199999993,1.0,E
E159,100,99,2.793888898967825,3.9109210189678247,3.492388581518841,4.5940965815188415,1.1170321199999997,1.1017080000000001,1.0,E
E160,100,101,22.899813171033074,24.596047131033075,23.51586175273864,25.127838825920595,1.6962339599999998,1.6119770731819534,1.0,E
E161,102,92,8.127001677884751,8.843175669505221,7.672483011059638,8.389916211059639,0.7161739916204715,0.7174332,1.0,E
E162,101,102,10.127838825920438,11.57272071468719,9.6887834160241,11.127001677884882,1.4448818887667507,1.4382182618607828,1.0,E
E163,103,100,24.357827168488694,27.091695168488695,19.376596044971883,22.148490564971883,2.733868,2.7718945199999996,1.0,E
E164,100,104,10.64699414699911,13.444745891999109,6.862007933671439,9.412392838671439,2.797751745,2.550384905,1.0,E
E165,103,104,13.867100013959533,15.943003513959532,13.913013180906017,15.831694615906017,2.0759035,1.9186814349999999,1.0,E
E166,103,105,12.848518700592368,14.929522700592369,11.580746355208245,13.480445355208245,2.081004,1.8996990000000002,1.0,E
E167,100,106,9.475983515925515,12.682279415925514,4.2592231069914295,7.123010062489074,3.2062958999999993,2.863786955497645,1.0,E
E168,104,105,2.6323392359264424,3.0971598489264425,2.1469798052716356,2.6060737302716355,0.464820613,0.459093925,1.0,E
E169,105,106,3.8798885669541052,4.5475768919541055,4.489285938187671,5.151652146926965,0.667688325,0.6623662087392941,1.0,E
E170,105,107,-2.3749354070527167,-0.17724440705271682,-1.5839915860121567,0.5548858539878423,2.197691,2.138877439999999,1.0,E
E171,108,105,9.922314617418335,10.783061688293436,10.269869876812255,11.128459326812255,0.8607470708751005,0.85858945,1.0,E
E172,107,106,0.5505286853454389,2.689406125345438,1.5451644954305408,3.7253377905835867,2.138877439999999,2.180173295153046,1.0,E
E173,109,108,10.392925250002177,10.748277830916653,10.5675598593562,10.922314617417522,0.3553525809144764,0.35475475806132123,1.0,E
E174,103,110,8.348917699027936,10.700248199027936,3.9702093986885107,6.152419743688512,2.3513305,2.182210345000001,1.0,E
E175,110,109,11.771645468390023,12.727841758390024,12.448435495466613,13.392925250002458,0.9561962900000004,0.9444897545358452,1.0,E
E176,110,111,0.956134801697127,1.9028638016971273,0.8834247849230468,1.843824784923047,0.9467290000000004,0.9604000000000001,1.0,E
E177,112,110,28.511693396859123,31.45863089685912,27.679292994890588,30.61415289489059,2.9469374999999984,2.934859900000001,1.0,E
E178,17,113,5.900599143589868,6.280836399182863,6.267559395542023,6.646202211542023,0.3802372555929948,0.378642816,1.0,E
E179,113,32,13.398828305302441,15.952695215302441,15.39669071617814,17.79857642617814,2.55386691,2.4018857099999997,1.0,E
E180,32,114,1.7777305354085136,2.5326089014085134,2.4704180122504367,3.2207458780112006,0.7548783659999999,0.7503278657607639,1.0,E
E181,27,115,5.060385130397468,5.984290794397468,5.61634256778493,6.525083452179757,0.9239056639999998,0.9087408843948276,1.0,E
E182,114,115,0.22074587801267243,0.3479513392841533,0.34772968975989454,0.47491654781921117,0.12720546127148086,0.12718685805931662,1.0,E
E183,116,68,51.32247720597082,59.60468220597082,58.10466677594915,66.35804385200318,8.282204999999998,8.253377076054031,1.0,E
E184,12,117,5.197251717446403,6.951630717446404,6.302482044766187,8.000000000000048,1.754379000000001,1.6975179552338615,1.0,E
E185,75,118,23.587659753208175,24.148162607728718,23.01709375967895,23.557051304413555,0.5605028545205429,0.5399575447346049,1.0,E
E186,118,76,8.557051304413225,9.168221947702143,9.088980647008821,9.691891469008821,0.6111706432889183,0.6029108219999998,1.0,E
L1,1,0,27.0,27.0,27.0,27.0,0.0,0.0,1.0,L
L2,2,0,9.0,9.0,9.0,9.0,0.0,0.0,1.0,L
L3,3,0,10.0,10.0,10.0,10.0,0.0,0.0,1.0,L
L4,4,0,12.0,12.0,12.0,12.0,0.0,0.0,1.0,L
L6,6,0,22.0,22.0,22.0,22.0,0.0,0.0,1.0,L
L7,7,0,2.0,2.0,2.0,2.0,0.0,0.0,1.0,L
L11,11,0,23.0,23.0,23.0,23.0,0.0,0.0,1.0,L
L12,12,0,10.0,10.0,10.0,10.0,0.0,0.0,1.0,L
L13,13,0,16.0,16.0,16.0,16.0,0.0,0.0,1.0,L
L14,14,0,1.0,1.0,1.0,1.0,0.0,0.0,1.0,L
L15,15,0,30.0,30.0,30.0,30.0,0.0,0.0,1.0,L
L16,16,0,10.0,10.0,10.0,10.0,0.0,0.0,1.0,L
L17,17,0,3.0,3.0,3.0,3.0,0.0,0.0,1.0,L
L18,18,0,34.0,34.0,34.0,34.0,0.0,0.0,1.0,L
L19,19,0,25.0,25.0,25.0,25.0,0.0,0.0,1.0,L
L20,20,0,3.0,3.0,3.0,3.0,0.0,0.0,1.0,L
L21,21,0,8.0,8.0,8.0,8.0,0.0,0.0,1.0,L
L22,22,0,5.0,5.0,5.0,5.0,0.0,0.0,1.0,L
L23,23,0,3.0,3.0,3.0,3.0,0.0,0.0,1.0,L
L27,27,0,13.0,13.0,13.0,13.0,0.0,0.0,1.0,L
L28,28,0,7.0,7.0,7.0,7.0,0.0,0.0,1.0,L
L29,29,0,4.0,4.0,4.0,4.0,0.0,0.0,1.0,L
L31,31,0,27.0,27.0,27.0,27.0,0.0,0.0,1.0,L
L32,32,0,23.0,23.0,23.0,23.0,0.0,0.0,1.0,L
L33,33,0,9.0,9.0,9.0,9.0,0.0,0.0,1.0,L
L34,34,0,26.0,26.0,26.0,26.0,0.0,0.0,1.0,L
L35,35,0,9.0,9.0,9.0,9.0,0.0,0.0,1.0,L
L36,36,0,17.0,17.0,17.0,17.0,0.0,0.0,1.0,L
L39,39,0,11.0,11.0,11.0,11.0,0.0,0.0,1.0,L
L40,40,0,23.0,23.0,23.0,23.0,0.0,0.0,1.0,L
L41,41,0,10.0,10.0,10.0,10.0,0.0,0.0,1.0,L
L42,42,0,23.0,23.0,23.0,23.0,0.0,0.0,1.0,L
L43,43,0,7.0,7.0,7.0,7.0,0.0,0.0,1.0,L
L44,44,0,8.0,8.0,8.0,8.0,0.0,0.0,1.0,L
L45,45,0,22.0,22.0,22.0,22.0,0.0,0.0,1.0,L
L46,46,0,10.0,10.0,10.0,10.0,0.0,0.0,1.0,L
L48,48,0,11.0,11.0,11.0,11.0,0.0,0.0,1.0,L
L49,49,0,30.0,30.0,30.0,30.0,0.0,0.0,1.0,L
L50,50,0,4.0,4.0,4.0,4.0,0.0,0.0,1.0,L
L51,51,0,8.0,8.0,8.0,8.0,0.0,0.0,1.0,L
L52,52,0,5.0,5.0,5.0,5.0,0.0,0.0,1.0,L
L53,53,0,11.0,11.0,11.0,11.0,0.0,0.0,1.0,L
L54,54,0,32.0,32.0,32.0,32.0,0.0,0.0,1.0,L
L55,55,0,22.0,22.0,22.0,22.0,0.0,0.0,1.0,L
L56,56,0,18.0,18.0,18.0,18.0,0.0,0.0,1.0,L
L57,57,0,3.0,3.0,3.0,3.0,0.0,0.0,1.0,L
L58,58,0,3.0,3.0,3.0,3.0,0.0,0.0,1.0,L
L59,59,0,113.0,113.0,113.0,113.0,0.0,0.0,1.0,L
L60,60,0,3.0,3.0,3.0,3.0,0.0,0.0,1.0,L
L62,62,0,14.0,14.0,14.0,14.0,0.0,0.0,1.0,L
L66,66,0,18.0,18.0,18.0,18.0,0.0,0.0,1.0,L
L67,67,0,7.0,7.0,7.0,7.0,0.0,0.0,1.0,L
L70,70,0,20.0,20.0,20.0,20.0,0.0,0.0,1.0,L
L74,74,0,27.0,27.0,27.0,27.0,0.0,0.0,1.0,L
L75,75,0,11.0,11.0,11.0,11.0,0.0,0.0,1.0,L
L76,76,0,36.0,36.0,36.0,36.0,0.0,0.0,1.0,L
L77,77,0,28.0,28.0,28.0,28.0,0.0,0.0,1.0,L
L78,78,0,26.0,26.0,26.0,26.0,0.0,0.0,1.0,L
L79,79,0,32.0,32.0,32.0,32.0,0.0,0.0,1.0,L
L80,80,0,26.0,26.0,26.0,26.0,0.0,0.0,1.0,L
L82,82,0,27.0,27.0,27.0,27.0,0.0,0.0,1.0,L
L83,83,0,10.0,10.0,10.0,10.0,0.0,0.0,1.0,L
L84,84,0,7.0,7.0,7.0,7.0,0.0,0.0,1.0,L
L85,85,0,15.0,15.0,15.0,15.0,0.0,0.0,1.0,L
L86,86,0,10.0,10.0,10.0,10.0,0.0,0.0,1.0,L
L88,88,0,10.0,10.0,10.0,10.0,0.0,0.0,1.0,L
L90,90,0,42.0,42.0,42.0,42.0,0.0,0.0,1.0,L
L92,92,0,10.0,10.0,10.0,10.0,0.0,0.0,1.0,L
L93,93,0,7.0,7.0,7.0,7.0,0.0,0.0,1.0,L
L94,94,0,16.0,16.0,16.0,16.0,0.0,0.0,1.0,L
L95,95,0,31.0,31.0,31.0,31.0,0.0,0.0,1.0,L
L96,96,0,15.0,15.0,15.0,15.0,0.0,0.0,1.0,L
L97,97,0,9.0,9.0,9.0,9.0,0.0,0.0,1.0,L
L98,98,0,8.0,8.0,8.0,8.0,0.0,0.0,1.0,L
L100,100,0,18.0,18.0,18.0,18.0,0.0,0.0,1.0,L
L101,101,0,15.0,15.0,15.0,15.0,0.0,0.0,1.0,L
L102,102,0,3.0,3.0,3.0,3.0,0.0,0.0,1.0,L
L103,103,0,16.0,16.0,16.0,16.0,0.0,0.0,1.0,L
L104,104,0,25.0,25.0,25.0,25.0,0.0,0.0,1.0,L
L105,105,0,26.0,26.0,26.0,26.0,0.0,0.0,1.0,L
L106,106,0,16.0,16.0,16.0,16.0,0.0,0.0,1.0,L
L107,107,0,12.0,12.0,12.0,12.0,0.0,0.0,1.0,L
L108,108,0,1.0,1.0,1.0,1.0,0.0,0.0,1.0,L
L109,109,0,3.0,3.0,3.0,3.0,0.0,0.0,1.0,L
L110,110,0,30.0,30.0,30.0,30.0,0.0,0.0,1.0,L
L112,112,0,13.0,13.0,13.0,13.0,0.0,0.0,1.0,L
L114,114,0,3.0,3.0,3.0,3.0,0.0,0.0,1.0,L
L115,115,0,7.0,7.0,7.0,7.0,0.0,0.0,1.0,L
L117,117,0,8.0,8.0,8.0,8.0,0.0,0.0,1.0,L
L118,118,0,15.0,15.0,15.0,15.0,0.0,0.0,1.0,L
G6,0,6,15.929766159142218,15.929766159142218,15.929766159142218,15.929766159142218,0.0,0.0,1.0,G
G8,0,8,63.13844391825489,63.13844391825489,63.13844391825489,63.13844391825489,0.0,0.0,1.0,G
G12,0,12,91.29173645363397,91.29173645363397,91.29173645363397,91.29173645363397,0.0,0.0,1.0,G
G15,0,15,7.160454429098525,7.160454429098525,7.160454429098525,7.160454429098525,0.0,0.0,1.0,G
G18,0,18,28.426323864218077,28.426323864218077,28.426323864218077,28.426323864218077,0.0,0.0,1.0,G
G25,0,25,50.043256825364594,50.043256825364594,50.043256825364594,50.043256825364594,0.0,0.0,1.0,G
G26,0,26,10.124723550193607,10.124723550193607,10.124723550193607,10.124723550193607,0.0,0.0,1.0,G
G27,0,27,3.982349735998241,3.982349735998241,3.982349735998241,3.982349735998241,0.0,0.0,1.0,G
G31,0,31,32.586014422609594,32.586014422609594,32.586014422609594,32.586014422609594,0.0,0.0,1.0,G
G36,0,36,7.725078582206731,7.725078582206731,7.725078582206731,7.725078582206731,0.0,0.0,1.0,G
G40,0,40,28.454070348166397,28.454070348166397,28.454070348166397,28.454070348166397,0.0,0.0,1.0,G
G42,0,42,41.02957535128621,41.02957535128621,41.02957535128621,41.02957535128621,0.0,0.0,1.0,G
G49,0,49,115.84513001175594,115.84513001175594,115.84513001175594,115.84513001175594,0.0,0.0,1.0,G
G54,0,54,3.9010644848987113,3.9010644848987113,3.9010644848987113,3.9010644848987113,0.0,0.0,1.0,G
G55,0,55,4.664171615889472,4.664171615889472,4.664171615889472,4.664171615889472,0.0,0.0,1.0,G
G59,0,59,76.83395217508388,76.83395217508388,76.83395217508388,76.83395217508388,0.0,0.0,1.0,G
G62,0,62,1.25837284115644,1.25837284115644,1.25837284115644,1.25837284115644,0.0,0.0,1.0,G
G65,0,65,81.5101589530239,81.5101589530239,81.5101589530239,81.5101589530239,0.0,0.0,1.0,G
G70,0,70,9.669292167177101,9.669292167177101,9.669292167177101,9.669292167177101,0.0,0.0,1.0,G
G73,0,73,9.65137065096637,9.65137065096637,9.65137065096637,9.65137065096637,0.0,0.0,1.0,G
G76,0,76,5.2681008827310585,5.2681008827310585,5.2681008827310585,5.2681008827310585,0.0,0.0,1.0,G
G77,0,77,12.170364335753725,12.170364335753725,12.170364335753725,12.170364335753725,0.0,0.0,1.0,G
G80,0,80,105.4664647900745,105.4664647900745,105.4664647900745,105.4664647900745,0.0,0.0,1.0,G
G87,0,87,11.021607354416986,11.021607354416986,11.021607354416986,11.021607354416986,0.0,0.0,1.0,G
G90,0,90,59.308407488856574,59.308407488856574,59.308407488856574,59.308407488856574,0.0,0.0,1.0,G
G100,0,100,95.55211552887721,95.55211552887721,95.55211552887721,95.55211552887721,0.0,0.0,1.0,G
G103,0,103,75.42236358206858,75.42236358206858,75.42236358206858,75.42236358206858,0.0,0.0,1.0,G
G104,0,104,2.3882517813491724,2.3882517813491724,2.3882517813491724,2.3882517813491724,0.0,0.0,1.0,G
G107,0,107,6.557818831357537,6.557818831357537,6.557818831357537,6.557818831357537,0.0,0.0,1.0,G
G110,0,110,0.28083363150783214,0.28083363150783214,0.28083363150783214,0.28083363150783214,0.0,0.0,1.0,G
G112,0,112,41.51169339685913,41.51169339685913,41.51169339685913,41.51169339685913,0.0,0.0,1.0,G
G113,0,113,6.752626093760185,6.752626093760185,6.752626093760185,6.752626093760185,0.0,0.0,1.0,G
G116,0,116,51.32247720597093,51.32247720597093,51.32247720597093,51.32247720597093,0.0,0.0,1.0,G
G1,1,0,3.1040970844952867,3.1040970844952867,3.1040970844952867,3.1040970844952867,0.0,0.0,1.0,L
G4,4,0,15.009646582050436,15.009646582050436,15.009646582050436,15.009646582050436,0.0,0.0,1.0,L
G10,10,0,51.04215159113535,51.04215159113535,51.04215159113535,51.04215159113535,0.0,0.0,1.0,L
G19,19,0,14.27417153244572,14.27417153244572,14.27417153244572,14.27417153244572,0.0,0.0,1.0,L
G24,24,0,14.907621234653504,14.907621234653504,14.907621234653504,14.907621234653504,0.0,0.0,1.0,L
G32,32,0,16.284774732526934,16.284774732526934,16.284774732526934,16.284774732526934,0.0,0.0,1.0,L
G34,34,0,20.827111730978785,20.827111730978785,20.827111730978785,20.827111730978785,0.0,0.0,1.0,L
G46,46,0,5.029457338951531,5.029457338951531,5.029457338951531,5.029457338951531,0.0,0.0,1.0,L
G56,56,0,2.2857488880900476,2.2857488880900476,2.2857488880900476,2.2857488880900476,0.0,0.0,1.0,L
G61,61,0,40.394011511486106,40.394011511486106,40.394011511486106,40.394011511486106,0.0,0.0,1.0,L
G66,66,0,1.9565866442922015,1.9565866442922015,1.9565866442922015,1.9565866442922015,0.0,0.0,1.0,L
G69,69,0,82.42405729227252,82.42405729227252,82.42405729227252,82.42405729227252,0.0,0.0,1.0,L
G72,72,0,11.130055087154503,11.130055087154503,11.130055087154503,11.130055087154503,0.0,0.0,1.0,L
G74,74,0,5.625208863111986,5.625208863111986,5.625208863111986,5.625208863111986,0.0,0.0,1.0,L
G85,85,0,5.606589177795048,5.606589177795048,5.606589177795048,5.606589177795048,0.0,0.0,1.0,L
G89,89,0,5.904954712093115,5.904954712093115,5.904954712093115,5.904954712093115,0.0,0.0,1.0,L
G91,91,0,13.08802256532367,13.08802256532367,13.08802256532367,13.08802256532367,0.0,0.0,1.0,L
G92,92,0,13.95624818687493,13.95624818687493,13.95624818687493,13.95624818687493,0.0,0.0,1.0,L
G99,99,0,17.535589546914437,17.535589546914437,17.535589546914437,17.535589546914437,0.0,0.0,1.0,L
G105,105,0,18.334525252391067,18.334525252391067,18.334525252391067,18.334525252391067,0.0,0.0,1.0,L
G111,111,0,1.8438247849230436,1.8438247849230436,1.8438247849230436,1.8438247849230436,0.0,0.0,1.0,L
E8.S8,8,0,59.654007048636934,59.654007048636934,59.654007048636934,59.654007048636934,0.0,0.0,1.0,L
E32.S26,26,0,117.05399669139054,117.05399669139054,117.05399669139054,117.05399669139054,0.0,0.0,1.0,L
E36.S30,30,0,108.60542350292481,108.60542350292481,108.60542350292481,108.60542350292481,0.0,0.0,1.0,L
E51.S38,38,0,183.21619565892888,183.21619565892888,183.21619565892888,183.21619565892888,0.0,0.0,1.0,L
E93.S63,63,0,105.52175547301765,105.52175547301765,105.52175547301765,105.52175547301765,0.0,0.0,1.0,L
E95.S64,64,0,55.82688904586356,55.82688904586356,55.82688904586356,55.82688904586356,0.0,0.0,1.0,L
E102.S65,65,0,202.96471082881848,202.96471082881848,202.96471082881848,202.96471082881848,0.0,0.0,1.0,L
E107.S68,68,0,202.25825026095183,202.25825026095183,202.25825026095183,202.25825026095183,0.0,0.0,1.0,L
E127.S81,81,0,199.66882189328302,199.66882189328302,199.66882189328302,199.66882189328302,0.0,0.0,1.0,L
E66_QF,42,0,5.2448306673497385,5.2448306673497385,5.2448306673497385,5.2448306673497385,0.0,0.0,1.0,L
E66_QT,49,0,0.37017079964512534,0.37017079964512534,0.37017079964512534,0.37017079964512534,0.0,0.0,1.0,L
E67_QF,42,0,5.2448306673497385,5.2448306673497385,5.2448306673497385,5.2448306673497385,0.0,0.0,1.0,L
E67_QT,49,0,0.37017079964512534,0.37017079964512534,0.37017079964512534,0.37017079964512534,0.0,0.0,1.0,L
E98_QF,49,0,4.3257293327660875,4.3257293327660875,4.3257293327660875,4.3257293327660875,0.0,0.0,1.0,L
E98_QT,66,0,8.32488284209359,8.32488284209359,8.32488284209359,8.32488284209359,0.0,0.0,1.0,L
E99_QF,49,0,4.3257293327660875,4.3257293327660875,4.3257293327660875,4.3257293327660875,0.0,0.0,1.0,L
E99_QT,66,0,8.32488284209359,8.32488284209359,8.32488284209359,8.32488284209359,0.0,0.0,1.0,L
E136_QF,85,0,0.6769707908426625,0.6769707908426625,0.6769707908426625,0.6769707908426625,0.0,0.0,1.0,L
E136_QT,89,0,3.733560939926167,3.733560939926167,3.733560939926167,3.733560939926167,0.0,0.0,1.0,L
S34,0,34,13.555584000000003,13.555584000000003,13.555584000000003,13.555584000000003,0.0,0.0,1.0,G
S44,0,44,9.69114281519018,9.69114281519018,9.69114281519018,9.69114281519018,0.0,0.0,1.0,G
S45,0,45,9.72950559036174,9.72950559036174,9.72950559036174,9.72950559036174,0.0,0.0,1.0,G
S46,0,46,10.100249999999997,10.100249999999997,10.100249999999997,10.100249999999997,0.0,0.0,1.0,G
S48,0,48,15.625387310859855,15.625387310859855,15.625387310859855,15.625387310859855,0.0,0.0,1.0,G
S74,0,74,11.013168000000002,11.013168000000002,11.013168000000002,11.013168000000002,0.0,0.0,1.0,G
S79,0,79,20.370624072421517,20.370624072421517,20.370624072421517,20.370624072421517,0.0,0.0,1.0,G
S82,0,82,19.54443420322757,19.54443420322757,19.54443420322757,19.54443420322757,0.0,0.0,1.0,G
S83,0,83,9.689982166044453,9.689982166044453,9.689982166044453,9.689982166044453,0.0,0.0,1.0,G
S105,0,105,18.624499999999998,18.624499999999998,18.624499999999998,18.624499999999998,0.0,0.0,1.0,G
S107,0,107,5.437823999999998,5.437823999999998,5.437823999999998,5.437823999999998,0.0,0.0,1.0,G
S110,0,110,5.680374000000002,5.680374000000002,5.680374000000002,5.680374000000002,0.0,0.0,1.0,G
S5,5,0,40.15892850360679,40.15892850360679,40.15892850360679,40.15892850360679,0.0,0.0,1.0,L
S37,37,0,24.53524788005204,24.53524788005204,24.53524788005204,24.53524788005204,0.0,0.0,1.0,L
